Flow Title=
Program Version=6.00
Use Restart= 0 
Initial Storage Elev=test            ,0
Boundary Location=                ,                ,        ,        ,                ,test            ,                ,inflow                          
Interval=15MIN
Flow Hydrograph=1730
268000.0268000.0268000.0268000.0269000.0268000.0268000.0268000.0268000.0268000.0
268000.0268000.0268000.0268000.0268000.0268000.0268000.0268000.0268000.0268000.0
267000.0267000.0268000.0267000.0267000.0268000.0267000.0267000.0267000.0267000.0
267000.0266000.0266000.0266000.0266000.0266000.0266000.0266000.0266000.0266000.0
266000.0266000.0265000.0265000.0264000.0265000.0265000.0265000.0265000.0265000.0
263000.0263000.0263000.0263000.0262000.0262000.0262000.0262000.0262000.0261000.0
261000.0261000.0261000.0261000.0261000.0261000.0260000.0260000.0260000.0260000.0
260000.0260000.0260000.0260000.0259000.0259000.0259000.0259000.0259000.0259000.0
259000.0258000.0258000.0258000.0258000.0258000.0258000.0258000.0258000.0258000.0
257000.0257000.0257000.0257000.0257000.0257000.0257000.0257000.0257000.0257000.0
257000.0257000.0257000.0256000.0256000.0256000.0256000.0256000.0256000.0256000.0
256000.0256000.0256000.0256000.0256000.0256000.0256000.0256000.0256000.0254000.0
256000.0255000.0255000.0255000.0255000.0255000.0255000.0255000.0255000.0255000.0
255000.0255000.0254000.0254000.0254000.0255000.0256000.0254000.0255000.0255000.0
254000.0254000.0253000.0254000.0253000.0254000.0253000.0252000.0253000.0253000.0
253000.0253000.0253000.0253000.0253000.0253000.0253000.0253000.0253000.0253000.0
253000.0253000.0253000.0253000.0253000.0253000.0253000.0252000.0252000.0253000.0
253000.0253000.0253000.0252000.0253000.0253000.0253000.0252000.0253000.0252000.0
252000.0252000.0252000.0251000.0252000.0252000.0252000.0251000.0251000.0252000.0
252000.0252000.0252000.0252000.0251000.0252000.0252000.0251000.0251000.0251000.0
252000.0252000.0252000.0251000.0252000.0252000.0252000.0252000.0252000.0252000.0
252000.0252000.0252000.0251000.0252000.0251000.0252000.0252000.0251000.0250000.0
250000.0250000.0249000.0249000.0249000.0249000.0248000.0248000.0247000.0248000.0
247000.0247000.0247000.0247000.0247000.0247000.0246000.0247000.0247000.0247000.0
247000.0246000.0246000.0246000.0246000.0246000.0246000.0245000.0246000.0246000.0
246000.0245000.0246000.0246000.0245000.0245000.0245000.0246000.0244000.0245000.0
245000.0245000.0245000.0245000.0245000.0245000.0245000.0245000.0245000.0245000.0
245000.0244000.0244000.0245000.0244000.0244000.0244000.0244000.0244000.0244000.0
244000.0244000.0243000.0243000.0243000.0243000.0243000.0243000.0243000.0243000.0
242000.0243000.0242000.0243000.0243000.0242000.0242000.0242000.0242000.0242000.0
242000.0243000.0242000.0242000.0241000.0241000.0241000.0241000.0241000.0241000.0
240000.0241000.0240000.0240000.0240000.0241000.0239000.0240000.0239000.0239000.0
240000.0239000.0238000.0238000.0239000.0239000.0239000.0239000.0240000.0240000.0
240000.0240000.0240000.0239000.0240000.0240000.0239000.0241000.0241000.0241000.0
241000.0241000.0241000.0241000.0241000.0241000.0241000.0241000.0241000.0241000.0
241000.0241000.0241000.0241000.0241000.0241000.0241000.0241000.0241000.0241000.0
241000.0241000.0241000.0241000.0241000.0241000.0241000.0241000.0241000.0241000.0
240000.0240000.0240000.0240000.0240000.0240000.0240000.0240000.0240000.0240000.0
240000.0240000.0240000.0240000.0240000.0240000.0240000.0240000.0240000.0240000.0
240000.0240000.0240000.0240000.0240000.0239000.0239000.0241000.0240000.0240000.0
240000.0240000.0240000.0240000.0240000.0240000.0241000.0241000.0240000.0240000.0
241000.0241000.0241000.0240000.0241000.0241000.0241000.0242000.0242000.0241000.0
242000.0244000.0242000.0242000.0243000.0243000.0243000.0243000.0243000.0241036.0
241036.0241036.0241036.0241036.0241036.02.41E+052.41E+052.41E+052.41E+052.41E+05
2.41E+052.41E+052.41E+052.42E+052.42E+052.42E+052.42E+05241769.02.42E+052.42E+05
2.42E+052.42E+052.42E+052.42E+052.42E+052.42E+052.42E+052.42E+052.42E+052.43E+05
2.43E+052.43E+052.43E+052.43E+052.43E+052.43E+052.43E+052.43E+052.44E+052.44E+05
2.44E+052.44E+052.44E+052.44E+052.44E+052.44E+052.44E+052.45E+052.45E+052.45E+05
2.45E+052.45E+052.45E+052.45E+052.45E+052.45E+052.45E+052.45E+052.45E+052.46E+05
245559.72.46E+052.46E+052.46E+052.46E+052.46E+052.46E+052.46E+052.46E+052.46E+05
2.46E+052.46E+052.46E+052.46E+052.46E+052.46E+052.46E+052.47E+052.47E+052.47E+05
2.47E+052.47E+052.47E+052.47E+052.47E+052.47E+052.48E+052.48E+052.48E+052.48E+05
2.48E+052.48E+052.48E+052.48E+052.49E+052.49E+052.49E+052.49E+052.49E+052.49E+05
2.49E+052.49E+052.49E+052.49E+052.49E+052.49E+052.50E+052.50E+052.50E+052.50E+05
2.50E+052.50E+052.50E+052.50E+052.50E+052.50E+052.50E+052.50E+052.50E+052.50E+05
2.50E+052.50E+052.50E+052.51E+052.51E+052.51E+052.51E+052.51E+052.51E+052.51E+05
2.51E+052.51E+052.51E+052.52E+052.52E+052.52E+052.52E+052.52E+052.52E+052.52E+05
2.52E+052.53E+052.53E+052.53E+052.53E+052.53E+052.53E+052.53E+05253331.52.53E+05
2.53E+052.54E+052.54E+052.54E+052.54E+052.54E+052.54E+052.54E+052.54E+052.54E+05
2.54E+052.54E+052.54E+052.54E+052.54E+052.54E+052.54E+052.54E+052.54E+052.55E+05
2.55E+052.55E+052.55E+052.55E+052.55E+052.55E+052.55E+052.55E+052.55E+052.55E+05
255175.72.55E+052.55E+052.55E+052.55E+052.55E+052.56E+052.56E+052.56E+052.56E+05
2.56E+052.56E+052.56E+052.56E+052.56E+052.56E+052.56E+052.56E+052.56E+052.56E+05
2.56E+052.56E+052.56E+052.57E+052.57E+052.57E+052.57E+052.57E+052.57E+052.57E+05
2.57E+052.57E+052.57E+052.57E+052.57E+052.57E+052.57E+052.57E+052.57E+052.57E+05
2.57E+052.58E+052.58E+052.58E+052.58E+052.58E+052.58E+052.58E+052.58E+052.58E+05
2.58E+052.58E+052.58E+052.58E+052.58E+052.58E+052.58E+052.58E+052.59E+052.59E+05
2.59E+052.59E+052.59E+052.59E+052.59E+052.59E+052.59E+052.59E+052.59E+052.59E+05
2.59E+052.59E+052.59E+05259403.52.59E+052.60E+052.60E+052.60E+052.60E+052.60E+05
2.60E+052.60E+052.60E+052.60E+052.60E+052.60E+052.60E+052.60E+052.60E+052.60E+05
2.60E+052.60E+052.61E+052.61E+052.61E+052.61E+052.61E+052.61E+052.61E+052.61E+05
2.61E+052.61E+052.61E+052.61E+052.61E+052.61E+052.61E+052.61E+052.61E+052.61E+05
2.62E+052.62E+052.62E+052.62E+052.62E+052.62E+052.62E+052.62E+052.62E+052.62E+05
2.62E+052.62E+052.62E+052.62E+052.62E+052.62E+052.62E+052.63E+052.63E+052.63E+05
2.63E+052.63E+052.63E+052.63E+052.63E+052.63E+052.63E+052.63E+052.63E+052.63E+05
2.63E+052.63E+052.63E+052.63E+052.64E+052.64E+052.64E+052.64E+052.64E+052.64E+05
2.64E+052.64E+052.64E+052.64E+052.64E+052.64E+052.64E+052.64E+052.64E+052.64E+05
264480.8264480.8264480.8264480.8264480.8264480.8264480.8264480.8264480.8264480.8
264480.8264480.8264480.8264480.8264480.8264480.8264480.8264480.8264480.8264480.8
264480.8264480.8264480.8264480.8264480.82.65E+052.65E+052.65E+052.65E+052.65E+05
2.65E+052.65E+052.65E+052.65E+052.65E+052.65E+052.65E+052.65E+052.65E+052.65E+05
2.65E+052.65E+052.66E+052.66E+052.66E+052.66E+052.66E+052.66E+052.66E+052.66E+05
2.66E+052.66E+052.66E+052.66E+052.66E+052.66E+052.66E+052.66E+052.66E+052.67E+05
2.67E+052.67E+052.67E+052.67E+052.67E+052.67E+052.67E+052.67E+052.67E+052.67E+05
2.67E+052.67E+052.67E+052.67E+052.67E+052.67E+052.67E+052.67E+052.67E+052.67E+05
2.67E+052.67E+052.67E+052.67E+052.67E+052.67E+052.67E+052.67E+052.67E+052.67E+05
2.67E+052.67E+052.67E+052.67E+052.67E+052.67E+052.67E+052.67E+052.67E+052.67E+05
2.68E+052.68E+052.68E+052.68E+052.68E+052.68E+052.68E+052.68E+052.68E+052.68E+05
2.68E+052.68E+052.68E+052.68E+052.68E+052.68E+052.68E+052.69E+052.69E+052.69E+05
2.69E+052.69E+052.69E+05268892.42.69E+052.69E+052.69E+052.69E+05269187.82.69E+05
2.69E+052.69E+052.69E+05269483.22.70E+052.70E+052.70E+052.70E+05269778.62.70E+05
2.70E+052.70E+052.70E+05270074.02.70E+052.70E+052.70E+052.70E+052.70E+052.70E+05
2.70E+052.70E+052.70E+052.70E+052.70E+052.70E+052.70E+052.70E+052.70E+052.70E+05
2.70E+052.70E+052.70E+052.70E+052.70E+052.70E+052.70E+052.70E+052.70E+052.70E+05
2.70E+052.70E+052.70E+052.70E+052.70E+052.71E+05270606.82.71E+052.71E+052.71E+05
2.71E+052.71E+052.71E+052.71E+052.71E+052.71E+052.71E+052.71E+052.71E+052.71E+05
2.71E+052.71E+052.72E+052.72E+052.72E+052.72E+052.72E+052.72E+052.72E+052.72E+05
2.72E+052.72E+052.72E+052.72E+052.72E+052.72E+052.72E+052.72E+052.72E+052.72E+05
2.72E+052.72E+052.72E+052.72E+052.72E+052.72E+052.72E+052.72E+052.72E+052.72E+05
2.72E+052.72E+052.72E+052.72E+052.72E+052.72E+052.72E+052.72E+052.72E+052.72E+05
2.72E+052.72E+052.73E+052.73E+052.73E+052.73E+052.73E+052.73E+052.73E+052.73E+05
2.73E+052.73E+052.73E+052.73E+052.73E+052.73E+052.73E+052.73E+052.73E+052.73E+05
2.73E+052.73E+052.73E+052.73E+052.73E+052.73E+052.73E+052.73E+052.73E+052.73E+05
2.73E+052.73E+052.73E+052.73E+052.73E+052.73E+052.73E+052.73E+052.73E+052.73E+05
2.73E+052.73E+052.73E+052.74E+052.74E+052.74E+052.74E+052.74E+052.74E+052.74E+05
2.74E+052.74E+052.74E+052.74E+052.74E+052.74E+052.74E+052.74E+052.74E+052.74E+05
2.74E+052.74E+052.74E+052.74E+052.74E+052.74E+052.74E+052.74E+052.74E+052.74E+05
2.74E+052.74E+052.74E+052.74E+052.74E+052.74E+052.74E+052.74E+052.74E+052.74E+05
2.74E+052.74E+052.74E+052.74E+052.74E+052.74E+052.74E+052.74E+052.74E+052.74E+05
2.74E+052.74E+052.74E+052.74E+052.74E+052.74E+052.74E+052.74E+052.74E+052.74E+05
2.74E+052.74E+052.74E+052.74E+052.74E+052.74E+052.74E+052.74E+052.75E+052.75E+05
2.75E+052.75E+052.75E+052.75E+052.75E+052.75E+052.75E+052.75E+052.75E+052.75E+05
2.75E+052.75E+052.75E+052.75E+052.75E+052.76E+052.76E+052.76E+052.76E+052.76E+05
2.76E+052.76E+052.76E+052.76E+052.76E+052.76E+052.76E+052.76E+052.76E+052.76E+05
2.76E+052.76E+052.76E+052.76E+052.76E+052.76E+052.76E+052.76E+052.76E+052.76E+05
2.76E+052.76E+052.76E+052.76E+052.76E+052.76E+052.76E+052.76E+052.76E+052.76E+05
2.76E+052.76E+052.76E+052.76E+052.76E+052.76E+052.76E+052.76E+052.76E+052.76E+05
2.76E+052.76E+052.76E+052.76E+052.76E+052.76E+052.76E+052.76E+052.76E+052.76E+05
2.76E+052.76E+052.76E+052.76E+052.76E+052.76E+052.76E+052.76E+052.76E+052.76E+05
2.77E+052.77E+052.77E+052.77E+052.77E+052.77E+052.77E+052.77E+052.77E+052.77E+05
2.77E+052.77E+052.77E+052.77E+052.77E+052.77E+052.77E+052.77E+052.77E+052.77E+05
2.77E+052.77E+052.77E+052.77E+052.77E+052.77E+052.77E+052.77E+052.77E+052.77E+05
2.77E+052.77E+052.77E+052.77E+052.77E+052.77E+052.77E+052.77E+052.77E+052.77E+05
2.77E+052.77E+052.77E+052.77E+052.77E+052.77E+052.77E+052.77E+052.77E+052.77E+05
2.77E+052.77E+052.77E+052.77E+052.77E+052.77E+052.77E+052.77E+052.77E+052.77E+05
2.77E+052.77E+052.77E+052.77E+052.78E+052.78E+052.78E+052.78E+052.78E+052.78E+05
2.78E+052.78E+052.78E+052.78E+052.78E+052.78E+052.78E+052.78E+052.78E+052.78E+05
2.78E+052.79E+052.79E+052.79E+052.79E+052.79E+052.79E+052.79E+052.79E+052.79E+05
2.79E+052.79E+052.79E+052.79E+052.79E+052.79E+052.79E+052.79E+052.79E+052.79E+05
2.79E+052.79E+052.79E+052.79E+052.79E+052.79E+052.79E+052.79E+052.79E+052.79E+05
2.79E+052.79E+052.79E+052.79E+052.79E+052.79E+052.79E+052.79E+052.79E+052.79E+05
2.79E+052.79E+052.79E+052.79E+052.79E+052.79E+052.79E+052.79E+052.79E+052.79E+05
2.79E+052.79E+052.79E+052.79E+052.79E+052.79E+052.79E+052.79E+052.79E+052.79E+05
2.79E+052.79E+052.79E+052.79E+052.79E+052.79E+052.79E+052.79E+052.79E+052.79E+05
2.79E+052.79E+052.79E+052.79E+052.79E+052.79E+052.79E+052.79E+052.79E+052.79E+05
2.79E+052.79E+052.79E+052.79E+052.79E+052.79E+052.79E+052.79E+052.79E+052.79E+05
2.79E+052.79E+052.79E+052.79E+052.79E+052.79E+052.79E+052.79E+052.79E+052.79E+05
2.79E+052.79E+052.79E+052.79E+052.79E+052.79E+052.79E+052.79E+052.79E+052.79E+05
2.79E+052.79E+052.79E+052.79E+052.79E+052.79E+052.79E+052.79E+052.79E+052.79E+05
2.79E+052.79E+052.79E+052.79E+052.79E+052.79E+052.79E+052.79E+052.79E+052.79E+05
2.79E+052.79E+052.79E+052.79E+052.79E+052.79E+052.79E+052.79E+052.80E+052.80E+05
2.80E+052.80E+052.80E+052.80E+052.80E+052.80E+052.80E+052.80E+052.80E+052.80E+05
2.80E+052.80E+052.80E+052.80E+052.80E+052.80E+052.80E+052.80E+052.80E+052.80E+05
2.80E+052.80E+052.80E+052.80E+052.80E+052.80E+052.80E+052.80E+052.80E+052.80E+05
2.80E+052.80E+052.80E+052.80E+052.80E+052.80E+052.80E+052.80E+052.80E+052.80E+05
2.80E+052.80E+052.80E+052.80E+052.80E+052.80E+052.80E+052.80E+052.80E+052.80E+05
2.80E+052.80E+052.80E+052.80E+052.80E+052.80E+052.80E+052.80E+052.80E+052.80E+05
2.80E+052.80E+052.80E+052.80E+052.80E+052.80E+052.80E+052.80E+052.80E+052.80E+05
2.80E+052.80E+052.80E+052.80E+052.80E+052.80E+052.80E+052.80E+052.80E+052.80E+05
2.80E+052.80E+052.80E+052.80E+052.80E+052.80E+052.80E+052.80E+052.80E+052.80E+05
2.80E+052.80E+052.80E+052.80E+052.80E+052.80E+052.80E+052.80E+052.80E+052.80E+05
2.80E+052.80E+052.80E+052.80E+052.80E+052.80E+052.80E+052.80E+052.80E+052.80E+05
2.80E+052.80E+052.80E+052.80E+052.80E+052.80E+052.80E+052.80E+052.80E+052.80E+05
2.80E+052.80E+052.80E+052.80E+052.80E+052.80E+052.80E+052.80E+052.80E+052.80E+05
2.80E+052.80E+052.80E+052.80E+052.80E+052.80E+052.80E+052.80E+052.80E+052.80E+05
2.80E+052.80E+052.80E+052.80E+052.80E+052.80E+052.80E+052.80E+052.80E+052.80E+05
2.80E+052.80E+052.80E+052.80E+052.80E+052.80E+052.80E+052.80E+052.81E+052.81E+05
2.81E+052.81E+052.81E+052.81E+052.81E+052.81E+052.81E+052.81E+052.81E+052.81E+05
2.81E+052.81E+052.81E+052.81E+052.81E+052.82E+052.82E+052.82E+052.82E+052.82E+05
2.82E+052.82E+052.82E+052.82E+052.82E+052.82E+052.82E+052.82E+052.82E+052.82E+05
2.82E+052.82E+052.82E+052.82E+052.82E+052.82E+052.82E+052.82E+052.82E+052.82E+05
2.82E+052.82E+052.82E+052.82E+052.82E+052.82E+052.82E+052.82E+052.82E+052.82E+05
2.82E+052.82E+052.82E+052.82E+052.82E+052.82E+052.82E+052.82E+052.82E+052.82E+05
2.82E+052.82E+052.82E+052.82E+052.82E+052.82E+052.82E+052.82E+052.82E+052.82E+05
2.82E+052.82E+052.82E+052.82E+052.82E+052.82E+052.82E+052.82E+052.82E+052.82E+05
2.82E+052.82E+052.82E+052.82E+052.82E+052.82E+052.82E+052.82E+052.82E+052.81E+05
2.81E+052.81E+052.81E+052.81E+052.81E+052.81E+052.81E+052.81E+052.80E+052.80E+05
2.80E+052.80E+052.80E+052.80E+052.80E+052.80E+052.79E+052.79E+052.79E+052.79E+05
2.79E+052.79E+052.79E+052.79E+052.79E+052.79E+052.78E+052.78E+052.78E+052.78E+05
2.78E+052.78E+052.78E+052.78E+052.78E+052.78E+052.78E+052.78E+052.78E+052.78E+05
2.78E+052.78E+052.78E+052.77E+052.77E+052.77E+052.77E+052.77E+052.77E+052.77E+05
2.77E+052.77E+052.77E+052.77E+052.77E+052.77E+052.77E+052.77E+052.77E+052.76E+05
2.76E+052.76E+052.76E+052.76E+052.76E+052.76E+052.76E+052.76E+052.76E+052.76E+05

Stage Hydrograph TW Check=0
Flow Hydrograph Slope= 0.0001 
DSS Path=
Use DSS=False
Use Fixed Start Time=False
Fixed Start Date/Time=,
Is Critical Boundary=False
Critical Boundary Flow=
Boundary Location=                ,                ,        ,        ,                ,test            ,                ,outflow                         
Interval=6MIN
Stage Hydrograph=1860
   0.932   0.909   0.922   0.889   0.935   0.935   0.988   0.974   0.942   0.912
   0.915   0.909   0.892    0.86    0.86   0.889   0.922   0.925   0.955   0.915
   0.883   0.837   0.794   0.761   0.778   0.787   0.804   0.774   0.768   0.699
   0.666   0.656   0.673   0.636   0.584   0.548   0.509   0.469   0.427   0.413
   0.377    0.39   0.371   0.315   0.325   0.276    0.24   0.233   0.256     0.2
   0.177   0.154   0.148   0.135   0.128   0.108   0.095   0.098   0.125   0.144
   0.125   0.174   0.249   0.243   0.154   0.148    0.23   0.249   0.325   0.295
   0.312   0.331    0.39    0.43   0.443   0.472   0.489   0.495   0.482   0.545
   0.554   0.535   0.528   0.564   0.577   0.571   0.581    0.63   0.689   0.673
   0.679   0.679   0.663   0.686   0.715   0.692   0.755   0.771   0.787   0.778
   0.873   0.827   0.837   0.817   0.866   0.912   0.942   0.915   0.922   0.951
   0.948   0.928   0.951   1.027   1.073   1.093   1.073   1.086   1.076   1.132
   1.122   1.089   1.079   1.096    1.07   1.079   1.109   1.109   1.145   1.184
   1.171   1.198   1.175   1.204   1.224   1.194   1.191   1.178   1.194   1.171
   1.175   1.188   1.198   1.204   1.194   1.158   1.161   1.109   1.115   1.145
   1.122   1.129   1.076   1.017   1.007   1.024    1.03    1.01   1.027   1.027
   0.997   0.978   0.942   0.928   0.886   0.883   0.915   0.942   0.892   0.886
    0.83   0.774   0.791   0.751   0.741   0.755   0.719   0.673   0.666   0.656
   0.627   0.584   0.591   0.561   0.558   0.535   0.525   0.528   0.495   0.482
   0.469   0.476   0.472   0.456   0.443   0.423    0.42    0.44   0.433    0.39
   0.341   0.348   0.328   0.299   0.299   0.305   0.276   0.246   0.203   0.236
   0.269   0.292   0.289   0.262   0.282   0.335   0.322   0.305   0.302   0.315
   0.364   0.354    0.39   0.417   0.413   0.453   0.456   0.499   0.538   0.564
   0.554   0.577   0.597    0.62    0.61   0.633   0.666   0.725   0.709   0.686
   0.686   0.679   0.692   0.709   0.761   0.741   0.787   0.771   0.794   0.801
   0.797   0.804   0.817   0.846   0.856   0.863   0.827   0.797   0.827    0.85
   0.853   0.866   0.856   0.843   0.853    0.84    0.83   0.801   0.794    0.81
   0.814   0.853   0.797   0.748   0.722   0.699   0.682   0.741   0.778   0.728
   0.705   0.719   0.692   0.673   0.702   0.699   0.732   0.699    0.65    0.62
   0.604    0.62   0.666   0.653   0.646    0.62    0.61   0.636   0.666   0.705
   0.663   0.676   0.732   0.768   0.768   0.771    0.83   0.853   0.869   0.886
   0.909   0.935   0.928   0.938   0.988   1.033    1.04   1.033   1.053    1.05
   1.115   1.132   1.122   1.135   1.096   1.093   1.112   1.076   1.076   1.063
    1.06    1.03   1.043   1.047   1.047    1.07   1.079   1.083   1.063   1.063
   1.066   1.096   1.099   1.135   1.125   1.138   1.158   1.181   1.158   1.161
   1.168   1.148   1.132   1.079   1.119   1.168   1.188   1.125   1.138   1.148
   1.152   1.152   1.178   1.207   1.188   1.207   1.217    1.24   1.243    1.23
   1.201   1.214   1.234   1.234   1.243   1.263    1.27    1.27   1.253   1.234
   1.273   1.286   1.306   1.339   1.355   1.352   1.312   1.283    1.28   1.306
   1.312   1.329    1.27   1.184   1.188   1.207   1.227   1.181   1.155   1.122
   1.083    1.04    1.07   1.102    1.06   1.053   1.024    1.01   0.965   0.899
   0.866    0.84   0.833   0.778   0.791   0.778   0.764   0.719   0.663    0.62
   0.607   0.548   0.564   0.541   0.518   0.499   0.459   0.377   0.381   0.351
   0.322   0.315   0.305   0.246   0.256   0.226   0.226   0.226   0.184   0.177
   0.213   0.194   0.174     0.2   0.167   0.187   0.161   0.141   0.151   0.118
   0.148   0.131   0.135   0.128   0.131    0.18   0.213    0.23   0.197   0.246
   0.272   0.295   0.259   0.249   0.266   0.282   0.276   0.299   0.348   0.374
   0.397    0.39     0.4   0.427   0.443   0.463   0.476   0.446   0.486   0.489
   0.525   0.558   0.568   0.551   0.535   0.541   0.571   0.604   0.617   0.653
   0.663   0.689   0.676   0.673    0.63   0.633    0.64   0.689   0.689   0.696
   0.659   0.709   0.728   0.722   0.768   0.768   0.814    0.82    0.86   0.853
   0.896   0.879   0.906   0.906   0.915   0.935   0.981   0.997   1.024   1.037
   1.037   1.066   1.093   1.093   1.096   1.109   1.112   1.096   1.112   1.168
   1.184   1.171   1.168   1.194   1.175   1.122   1.132   1.152   1.165   1.158
   1.135   1.102   1.073   1.053   1.076   1.037   1.063   1.004   0.984    1.02
   0.994   0.978   0.968   0.951   0.948   0.935   0.991   0.984    1.02    1.04
   1.014   0.951   0.938   0.955   0.978   1.007   1.037   0.988    1.04   1.001
   0.945   0.961   1.017   1.056   1.056    1.06   1.047   1.001   0.988   0.965
   0.932   0.925   0.919   0.889   0.912   0.925   0.925   0.925   0.965   0.951
   0.899   0.951   0.945   0.951   0.958   0.965   1.004   1.033    1.03   1.024
    1.02   0.978   0.994   0.978   0.994   0.981   0.958   0.942   0.942   0.915
   0.919   0.942   0.965   1.004   0.994   0.974   0.974   0.978   1.027    1.01
   1.083   1.165   1.165   1.125   1.096   1.109   1.106   1.102   1.132   1.145
   1.112   1.096   1.135   1.119   1.073   1.112   1.102   1.086    1.05   1.033
   1.017   0.981   0.955   0.961   0.955   0.912   0.873   0.833    0.82   0.778
   0.771   0.745   0.732   0.666   0.617   0.636   0.607   0.584   0.558   0.541
   0.499   0.482   0.433   0.381   0.335   0.289   0.269   0.246   0.197   0.167
   0.128   0.112   0.082   0.056   0.049    0.02  -0.016  -0.036  -0.066  -0.115
  -0.167  -0.203   -0.23  -0.266  -0.295  -0.299  -0.299  -0.331  -0.358  -0.354
  -0.354  -0.354  -0.344  -0.338  -0.341  -0.335  -0.341  -0.354  -0.344  -0.318
  -0.302  -0.292  -0.325  -0.331  -0.335  -0.279  -0.249    -0.2  -0.184   -0.19
  -0.161  -0.157  -0.128  -0.105  -0.043     0.0  -0.003   0.026   0.056   0.072
   0.098   0.138   0.174   0.184   0.197   0.223   0.249   0.299   0.305   0.305
   0.302   0.318   0.338   0.358   0.436   0.492   0.522   0.545   0.571   0.574
   0.617   0.656   0.679   0.705   0.705   0.768   0.801   0.804   0.817   0.837
   0.856   0.863   0.906   0.889   0.974   0.988    1.04   1.073   1.102   1.145
   1.148   1.194   1.178   1.201   1.247   1.306   1.355   1.388    1.43    1.45
   1.516   1.552   1.588   1.588   1.614   1.588   1.585   1.578    1.64    1.65
   1.624   1.627   1.572   1.575   1.535   1.522   1.555   1.568   1.532   1.499
    1.45    1.46    1.44   1.457   1.404   1.424   1.424   1.411   1.378   1.385
   1.365   1.365   1.329   1.302   1.237   1.214   1.247    1.23   1.194   1.201
   1.237   1.227   1.257   1.276   1.296   1.299   1.266   1.266   1.257   1.286
   1.312   1.273   1.273    1.26   1.257   1.266   1.243   1.234    1.24   1.234
   1.207   1.181   1.171   1.181   1.211   1.204   1.161   1.129   1.125   1.145
   1.135   1.198   1.227   1.214   1.184   1.168   1.168   1.188   1.155   1.161
   1.171   1.175   1.237   1.237   1.168   1.204   1.171   1.138   1.086   1.093
   1.083   1.099   1.063   1.089   1.109   1.129   1.102   1.096   1.093   1.102
   1.089   1.148   1.142   1.115   1.152   1.148   1.168   1.204   1.201   1.168
   1.119   1.109   1.109   1.079   1.047   1.001   0.965   0.968   0.932   0.853
   0.827   0.787   0.735   0.699   0.673    0.64    0.65   0.571   0.541   0.502
   0.466   0.417   0.364   0.322   0.282   0.276   0.253    0.22   0.138   0.105
   0.079   0.059   0.033    0.02   0.003  -0.033  -0.075  -0.112  -0.154  -0.187
  -0.226  -0.266  -0.308  -0.351  -0.367    -0.4  -0.413  -0.443  -0.463  -0.482
  -0.502  -0.545  -0.584  -0.604  -0.614  -0.604  -0.591   -0.62   -0.65   -0.64
  -0.646  -0.617  -0.617  -0.623  -0.676  -0.728  -0.764  -0.797  -0.784  -0.715
  -0.669  -0.692  -0.709  -0.761  -0.725  -0.686  -0.712  -0.719  -0.696  -0.679
  -0.682  -0.676   -0.65  -0.682   -0.63  -0.633  -0.617  -0.577  -0.495  -0.463
  -0.427   -0.43  -0.427  -0.515  -0.482  -0.427  -0.328  -0.226  -0.197  -0.138
   -0.23  -0.279  -0.207  -0.174  -0.197  -0.184   -0.18  -0.125  -0.075   -0.01
   0.039   0.095   0.187   0.285   0.341   0.404   0.449   0.499   0.541   0.535
   0.548   0.558   0.627   0.709   0.728   0.761   0.787   0.781   0.814    0.82
   0.896   0.958   1.014    1.07   1.099   1.125   1.155   1.194    1.22   1.273
   1.289   1.335   1.368   1.401   1.437   1.444   1.463   1.476   1.526   1.558
   1.568   1.601   1.588   1.598   1.663   1.683    1.69    1.68   1.713   1.686
   1.683   1.663   1.709   1.696   1.772   1.821   1.844   1.742   1.716   1.693
   1.657   1.601   1.617   1.575    1.65   1.627   1.601   1.634   1.604   1.496
    1.44   1.427   1.368   1.312   1.312   1.207   1.152   1.148   1.115   1.129
   1.211    1.22   1.142   1.086   1.063   1.135   1.165   1.152   1.073   1.024
   0.951   0.974    1.03   1.138    1.04   1.053   0.958   0.892   0.912   0.981
   1.004   0.988   0.961   1.004   1.165   1.171   1.119   1.109   1.211   1.161
   1.135   0.978   0.925   0.984   1.109   1.142   1.112   1.138   1.155   1.188
   1.083   0.984   0.988   1.165   1.175   1.122   1.175   1.125   1.079   1.132
   1.063   1.053   1.155   1.171    1.27   1.345    1.27   0.971   0.955   0.906
   0.814   0.719   0.696   0.761   0.741   0.614   0.446   0.361   0.341   0.315
   0.341   0.325   0.266   0.213     0.2    0.19   0.102   0.007  -0.033    0.02
  -0.016  -0.112  -0.115  -0.095  -0.105  -0.105  -0.148  -0.115  -0.131  -0.013
   0.016  -0.023  -0.125  -0.125   -0.01   0.052   0.049  -0.039  -0.062  -0.174
  -0.256  -0.295  -0.335  -0.318  -0.361  -0.344  -0.318  -0.266  -0.203  -0.269
  -0.367   0.036   0.017  -0.003  -0.022  -0.041   -0.06  -0.079  -0.099  -0.118
  -0.137  -0.146  -0.155  -0.164  -0.173  -0.181   -0.19  -0.199  -0.208  -0.217
  -0.226  -0.218  -0.211  -0.203  -0.195  -0.188   -0.18  -0.172  -0.165  -0.157
  -0.149  -0.124  -0.098  -0.072  -0.046  -0.021   0.005   0.031   0.056   0.082
   0.108   0.148   0.189   0.229    0.27   0.311   0.351   0.392   0.432   0.473
   0.514   0.559   0.604   0.649   0.694   0.739   0.784   0.829   0.874   0.919
   0.964   1.008   1.052   1.097   1.141   1.185    1.23   1.274   1.318   1.363
   1.407   1.441   1.475    1.51   1.544   1.578   1.612   1.646   1.681   1.715
   1.749   1.768   1.787   1.806   1.826   1.845   1.864   1.883   1.902   1.921
    1.94   1.946   1.953   1.959   1.965   1.971   1.977   1.983   1.989   1.996
   2.002   1.996   1.991   1.985   1.979   1.974   1.968   1.962   1.957   1.951
   1.946   1.935   1.924   1.913   1.902   1.892   1.881    1.87   1.859   1.848
   1.838   1.828   1.819    1.81   1.801   1.792   1.783   1.774   1.765   1.756
   1.747   1.744   1.741   1.738   1.735   1.732   1.729   1.726   1.723    1.72
   1.718   1.716   1.714   1.713   1.711    1.71   1.708   1.707   1.705   1.704
   1.702   1.698   1.693   1.689   1.684   1.679   1.675    1.67   1.666   1.661
   1.656   1.647   1.637   1.627   1.618   1.608   1.598   1.589   1.579   1.569
   1.559   1.547   1.535   1.522    1.51   1.498   1.485   1.473   1.461   1.448
   1.436   1.424   1.411   1.399   1.387   1.374   1.362    1.35   1.337   1.325
   1.313   1.295   1.278   1.261   1.244   1.227   1.209   1.192   1.175   1.158
    1.14   1.115    1.09   1.065   1.039   1.014   0.989   0.964   0.938   0.913
   0.888   0.855   0.822   0.789   0.756   0.723    0.69   0.657   0.625   0.592
   0.559   0.523   0.488   0.453   0.417   0.382   0.347   0.311   0.276   0.241
   0.205   0.171   0.137   0.104    0.07   0.036   0.002  -0.032  -0.066  -0.099
  -0.133   -0.16  -0.187  -0.214  -0.241  -0.268  -0.295  -0.322  -0.348  -0.375
  -0.402  -0.418  -0.434  -0.451  -0.467  -0.483  -0.499  -0.515  -0.531  -0.547
  -0.563  -0.566  -0.569  -0.572  -0.574  -0.577   -0.58  -0.583  -0.585  -0.588
  -0.591  -0.579  -0.568  -0.556  -0.544  -0.533  -0.521   -0.51  -0.498  -0.487
  -0.475   -0.45  -0.426  -0.401  -0.377  -0.352  -0.328  -0.303  -0.279  -0.254
   -0.23  -0.196  -0.161  -0.127  -0.093  -0.059  -0.025    0.01   0.044   0.078
   0.112   0.149   0.186   0.223    0.26   0.297   0.334   0.371   0.407   0.444
   0.481   0.521    0.56   0.599   0.639   0.678   0.717   0.757   0.796   0.835
   0.875   0.914   0.953   0.992   1.031   1.071    1.11   1.149   1.188   1.227
   1.266   1.294   1.322    1.35   1.378   1.406   1.434   1.462    1.49   1.518
   1.546    1.56   1.574   1.588   1.602   1.615   1.629   1.643   1.657   1.671
   1.684   1.684   1.683   1.683   1.682   1.682   1.682   1.681   1.681    1.68
    1.68   1.672   1.664   1.656   1.649   1.641   1.633   1.625   1.618    1.61
   1.602   1.596    1.59   1.584   1.578   1.571   1.565   1.559   1.553   1.547
   1.541   1.539   1.538   1.537   1.536   1.535   1.534   1.533   1.531    1.53
   1.529    1.53   1.531   1.532   1.532   1.533   1.534   1.535   1.536   1.536
   1.537   1.536   1.534   1.533   1.531    1.53   1.528   1.527   1.525   1.524
   1.523   1.516   1.509   1.503   1.496   1.489   1.483   1.476   1.469   1.463
   1.456   1.447   1.438    1.43   1.421   1.412   1.403   1.394   1.386   1.377
   1.368   1.356   1.343   1.331   1.318   1.306   1.293   1.281   1.269   1.256
   1.244   1.223   1.202   1.181   1.161    1.14   1.119   1.098   1.078   1.057
   1.036   1.007   0.978   0.948   0.919    0.89   0.861   0.831   0.802   0.773
   0.743   0.709   0.675    0.64   0.606   0.572   0.537   0.503   0.468   0.434
     0.4   0.365    0.33   0.295    0.26   0.225    0.19   0.155    0.12   0.085
   0.051   0.018  -0.015  -0.047   -0.08  -0.112  -0.145  -0.178   -0.21  -0.243
  -0.275  -0.301  -0.327  -0.352  -0.378  -0.404  -0.429  -0.455   -0.48  -0.506
  -0.532  -0.548  -0.564   -0.58  -0.597  -0.613  -0.629  -0.646  -0.662  -0.678
  -0.694  -0.698  -0.701  -0.704  -0.708  -0.711  -0.714  -0.717  -0.721  -0.724
  -0.727  -0.717  -0.706  -0.696  -0.686  -0.675  -0.665  -0.654  -0.644  -0.633
  -0.623  -0.602  -0.581   -0.56  -0.539  -0.517  -0.496  -0.475  -0.454  -0.433
  -0.412  -0.381   -0.35  -0.319  -0.288  -0.257  -0.226  -0.195  -0.164  -0.133
  -0.102  -0.063  -0.023   0.016   0.056   0.096   0.135   0.175   0.215   0.254
   0.294   0.336   0.377   0.419   0.461   0.503   0.545   0.586   0.628    0.67
   0.712   0.752   0.792   0.832   0.872   0.912   0.952   0.992   1.032   1.072
   1.113   1.137   1.161   1.186    1.21   1.234   1.258   1.283   1.307   1.331
   1.356   1.364   1.372   1.379   1.387   1.395   1.403   1.411   1.419   1.427
   1.435    1.43   1.426   1.422   1.418   1.414    1.41   1.406   1.402   1.398
   1.394   1.387    1.38   1.373   1.365   1.358   1.351   1.344   1.337    1.33
   1.323    1.32   1.317   1.314   1.311   1.308   1.306   1.303     1.3   1.297
   1.294   1.298   1.301   1.305   1.308   1.311   1.315   1.318   1.321   1.325
   1.328   1.333   1.338   1.343   1.347   1.352   1.357   1.362   1.367   1.372
   1.376   1.376   1.375   1.375   1.374   1.374   1.373   1.373   1.372   1.372