Geom Title=test
Program Version=5.07
Viewing Rectangle= 1189822.51556582 , 1594712.590434 , 2913023.93012751 , 2173705.2357669 

Storage Area=test            ,1399985.7255683,2557451.4935581
Storage Area Surface Line= 7 
1399767.654130272423643.15854592                
1208226.609878012873649.22636748                
1362844.07933465 2879418.5349293                
1576308.496121812424797.02025828                
1496692.037968762207871.01833404                
1336305.259950312287487.47648709                
1399767.654130272423643.15854592                
Storage Area Type= 1 
Storage Area Area=
Storage Area Min Elev=
Storage Area Is2D=-1
Storage Area Point Generation Data=,,10000,10000
Storage Area 2D Points= 1039 
1303226.60987801 2874418.53492931313226.60987801 2874418.5349293
1323226.60987801 2874418.53492931333226.60987801 2874418.5349293
1343226.60987801 2874418.53492931353226.60987801 2874418.5349293
1223226.60987801 2864418.53492931233226.60987801 2864418.5349293
1243226.60987801 2864418.53492931253226.60987801 2864418.5349293
1263226.60987801 2864418.53492931273226.60987801 2864418.5349293
1283226.60987801 2864418.53492931293226.60987801 2864418.5349293
1303226.60987801 2864418.53492931313226.60987801 2864418.5349293
1323226.60987801 2864418.53492931333226.60987801 2864418.5349293
1343226.60987801 2864418.53492931353226.60987801 2864418.5349293
1363226.60987801 2864418.53492931223226.60987801 2854418.5349293
1233226.60987801 2854418.53492931243226.60987801 2854418.5349293
1253226.60987801 2854418.53492931263226.60987801 2854418.5349293
1273226.60987801 2854418.53492931283226.60987801 2854418.5349293
1293226.60987801 2854418.53492931303226.60987801 2854418.5349293
1313226.60987801 2854418.53492931323226.60987801 2854418.5349293
1333226.60987801 2854418.53492931343226.60987801 2854418.5349293
1353226.60987801 2854418.53492931363226.60987801 2854418.5349293
1233226.60987801 2844418.53492931243226.60987801 2844418.5349293
1253226.60987801 2844418.53492931263226.60987801 2844418.5349293
1273226.60987801 2844418.53492931283226.60987801 2844418.5349293
1293226.60987801 2844418.53492931303226.60987801 2844418.5349293
1313226.60987801 2844418.53492931323226.60987801 2844418.5349293
1333226.60987801 2844418.53492931343226.60987801 2844418.5349293
1353226.60987801 2844418.53492931363226.60987801 2844418.5349293
1373226.60987801 2844418.53492931233226.60987801 2834418.5349293
1243226.60987801 2834418.53492931253226.60987801 2834418.5349293
1263226.60987801 2834418.53492931273226.60987801 2834418.5349293
1283226.60987801 2834418.53492931293226.60987801 2834418.5349293
1303226.60987801 2834418.53492931313226.60987801 2834418.5349293
1323226.60987801 2834418.53492931333226.60987801 2834418.5349293
1343226.60987801 2834418.53492931353226.60987801 2834418.5349293
1363226.60987801 2834418.53492931373226.60987801 2834418.5349293
1233226.60987801 2824418.53492931243226.60987801 2824418.5349293
1253226.60987801 2824418.53492931263226.60987801 2824418.5349293
1273226.60987801 2824418.53492931283226.60987801 2824418.5349293
1293226.60987801 2824418.53492931303226.60987801 2824418.5349293
1313226.60987801 2824418.53492931323226.60987801 2824418.5349293
1333226.60987801 2824418.53492931343226.60987801 2824418.5349293
1353226.60987801 2824418.53492931363226.60987801 2824418.5349293
1373226.60987801 2824418.53492931383226.60987801 2824418.5349293
1243226.60987801 2814418.53492931253226.60987801 2814418.5349293
1263226.60987801 2814418.53492931273226.60987801 2814418.5349293
1283226.60987801 2814418.53492931293226.60987801 2814418.5349293
1303226.60987801 2814418.53492931313226.60987801 2814418.5349293
1323226.60987801 2814418.53492931333226.60987801 2814418.5349293
1343226.60987801 2814418.53492931353226.60987801 2814418.5349293
1363226.60987801 2814418.53492931373226.60987801 2814418.5349293
1383226.60987801 2814418.53492931243226.60987801 2804418.5349293
1253226.60987801 2804418.53492931263226.60987801 2804418.5349293
1273226.60987801 2804418.53492931283226.60987801 2804418.5349293
1293226.60987801 2804418.53492931303226.60987801 2804418.5349293
1313226.60987801 2804418.53492931323226.60987801 2804418.5349293
1333226.60987801 2804418.53492931343226.60987801 2804418.5349293
1353226.60987801 2804418.53492931363226.60987801 2804418.5349293
1373226.60987801 2804418.53492931383226.60987801 2804418.5349293
1393226.60987801 2804418.53492931253226.60987801 2794418.5349293
1263226.60987801 2794418.53492931273226.60987801 2794418.5349293
1283226.60987801 2794418.53492931293226.60987801 2794418.5349293
1303226.60987801 2794418.53492931313226.60987801 2794418.5349293
1323226.60987801 2794418.53492931333226.60987801 2794418.5349293
1343226.60987801 2794418.53492931353226.60987801 2794418.5349293
1363226.60987801 2794418.53492931373226.60987801 2794418.5349293
1383226.60987801 2794418.53492931393226.60987801 2794418.5349293
1253226.60987801 2784418.53492931263226.60987801 2784418.5349293
1273226.60987801 2784418.53492931283226.60987801 2784418.5349293
1293226.60987801 2784418.53492931303226.60987801 2784418.5349293
1313226.60987801 2784418.53492931323226.60987801 2784418.5349293
1333226.60987801 2784418.53492931343226.60987801 2784418.5349293
1353226.60987801 2784418.53492931363226.60987801 2784418.5349293
1373226.60987801 2784418.53492931383226.60987801 2784418.5349293
1393226.60987801 2784418.53492931403226.60987801 2784418.5349293
1253226.60987801 2774418.53492931263226.60987801 2774418.5349293
1273226.60987801 2774418.53492931283226.60987801 2774418.5349293
1293226.60987801 2774418.53492931303226.60987801 2774418.5349293
1313226.60987801 2774418.53492931323226.60987801 2774418.5349293
1333226.60987801 2774418.53492931343226.60987801 2774418.5349293
1353226.60987801 2774418.53492931363226.60987801 2774418.5349293
1373226.60987801 2774418.53492931383226.60987801 2774418.5349293
1393226.60987801 2774418.53492931403226.60987801 2774418.5349293
1263226.60987801 2764418.53492931273226.60987801 2764418.5349293
1283226.60987801 2764418.53492931293226.60987801 2764418.5349293
1303226.60987801 2764418.53492931313226.60987801 2764418.5349293
1323226.60987801 2764418.53492931333226.60987801 2764418.5349293
1343226.60987801 2764418.53492931353226.60987801 2764418.5349293
1363226.60987801 2764418.53492931373226.60987801 2764418.5349293
1383226.60987801 2764418.53492931393226.60987801 2764418.5349293
1403226.60987801 2764418.53492931413226.60987801 2764418.5349293
1263226.60987801 2754418.53492931273226.60987801 2754418.5349293
1283226.60987801 2754418.53492931293226.60987801 2754418.5349293
1303226.60987801 2754418.53492931313226.60987801 2754418.5349293
1323226.60987801 2754418.53492931333226.60987801 2754418.5349293
1343226.60987801 2754418.53492931353226.60987801 2754418.5349293
1363226.60987801 2754418.53492931373226.60987801 2754418.5349293
1383226.60987801 2754418.53492931393226.60987801 2754418.5349293
1403226.60987801 2754418.53492931413226.60987801 2754418.5349293
1273226.60987801 2744418.53492931283226.60987801 2744418.5349293
1293226.60987801 2744418.53492931303226.60987801 2744418.5349293
1313226.60987801 2744418.53492931323226.60987801 2744418.5349293
1333226.60987801 2744418.53492931343226.60987801 2744418.5349293
1353226.60987801 2744418.53492931363226.60987801 2744418.5349293
1373226.60987801 2744418.53492931383226.60987801 2744418.5349293
1393226.60987801 2744418.53492931403226.60987801 2744418.5349293
1413226.60987801 2744418.53492931423226.60987801 2744418.5349293
1273226.60987801 2734418.53492931283226.60987801 2734418.5349293
1293226.60987801 2734418.53492931303226.60987801 2734418.5349293
1313226.60987801 2734418.53492931323226.60987801 2734418.5349293
1333226.60987801 2734418.53492931343226.60987801 2734418.5349293
1353226.60987801 2734418.53492931363226.60987801 2734418.5349293
1373226.60987801 2734418.53492931383226.60987801 2734418.5349293
1393226.60987801 2734418.53492931403226.60987801 2734418.5349293
1413226.60987801 2734418.53492931423226.60987801 2734418.5349293
1283226.60987801 2724418.53492931293226.60987801 2724418.5349293
1303226.60987801 2724418.53492931313226.60987801 2724418.5349293
1323226.60987801 2724418.53492931333226.60987801 2724418.5349293
1343226.60987801 2724418.53492931353226.60987801 2724418.5349293
1363226.60987801 2724418.53492931373226.60987801 2724418.5349293
1383226.60987801 2724418.53492931393226.60987801 2724418.5349293
1403226.60987801 2724418.53492931413226.60987801 2724418.5349293
1423226.60987801 2724418.53492931283226.60987801 2714418.5349293
1293226.60987801 2714418.53492931303226.60987801 2714418.5349293
1313226.60987801 2714418.53492931323226.60987801 2714418.5349293
1333226.60987801 2714418.53492931343226.60987801 2714418.5349293
1353226.60987801 2714418.53492931363226.60987801 2714418.5349293
1373226.60987801 2714418.53492931383226.60987801 2714418.5349293
1393226.60987801 2714418.53492931403226.60987801 2714418.5349293
1413226.60987801 2714418.53492931423226.60987801 2714418.5349293
1433226.60987801 2714418.53492931283226.60987801 2704418.5349293
1293226.60987801 2704418.53492931303226.60987801 2704418.5349293
1313226.60987801 2704418.53492931323226.60987801 2704418.5349293
1333226.60987801 2704418.53492931343226.60987801 2704418.5349293
1353226.60987801 2704418.53492931363226.60987801 2704418.5349293
1373226.60987801 2704418.53492931383226.60987801 2704418.5349293
1393226.60987801 2704418.53492931403226.60987801 2704418.5349293
1413226.60987801 2704418.53492931423226.60987801 2704418.5349293
1433226.60987801 2704418.53492931293226.60987801 2694418.5349293
1303226.60987801 2694418.53492931313226.60987801 2694418.5349293
1323226.60987801 2694418.53492931333226.60987801 2694418.5349293
1343226.60987801 2694418.53492931353226.60987801 2694418.5349293
1363226.60987801 2694418.53492931373226.60987801 2694418.5349293
1383226.60987801 2694418.53492931393226.60987801 2694418.5349293
1403226.60987801 2694418.53492931413226.60987801 2694418.5349293
1423226.60987801 2694418.53492931433226.60987801 2694418.5349293
1443226.60987801 2694418.53492931293226.60987801 2684418.5349293
1303226.60987801 2684418.53492931313226.60987801 2684418.5349293
1323226.60987801 2684418.53492931333226.60987801 2684418.5349293
1343226.60987801 2684418.53492931353226.60987801 2684418.5349293
1363226.60987801 2684418.53492931373226.60987801 2684418.5349293
1383226.60987801 2684418.53492931393226.60987801 2684418.5349293
1403226.60987801 2684418.53492931413226.60987801 2684418.5349293
1423226.60987801 2684418.53492931433226.60987801 2684418.5349293
1443226.60987801 2684418.53492931303226.60987801 2674418.5349293
1313226.60987801 2674418.53492931323226.60987801 2674418.5349293
1333226.60987801 2674418.53492931343226.60987801 2674418.5349293
1353226.60987801 2674418.53492931363226.60987801 2674418.5349293
1373226.60987801 2674418.53492931383226.60987801 2674418.5349293
1393226.60987801 2674418.53492931403226.60987801 2674418.5349293
1413226.60987801 2674418.53492931423226.60987801 2674418.5349293
1433226.60987801 2674418.53492931443226.60987801 2674418.5349293
1453226.60987801 2674418.53492931303226.60987801 2664418.5349293
1313226.60987801 2664418.53492931323226.60987801 2664418.5349293
1333226.60987801 2664418.53492931343226.60987801 2664418.5349293
1353226.60987801 2664418.53492931363226.60987801 2664418.5349293
1373226.60987801 2664418.53492931383226.60987801 2664418.5349293
1393226.60987801 2664418.53492931403226.60987801 2664418.5349293
1413226.60987801 2664418.53492931423226.60987801 2664418.5349293
1433226.60987801 2664418.53492931443226.60987801 2664418.5349293
1453226.60987801 2664418.53492931313226.60987801 2654418.5349293
1323226.60987801 2654418.53492931333226.60987801 2654418.5349293
1343226.60987801 2654418.53492931353226.60987801 2654418.5349293
1363226.60987801 2654418.53492931373226.60987801 2654418.5349293
1383226.60987801 2654418.53492931393226.60987801 2654418.5349293
1403226.60987801 2654418.53492931413226.60987801 2654418.5349293
1423226.60987801 2654418.53492931433226.60987801 2654418.5349293
1443226.60987801 2654418.53492931453226.60987801 2654418.5349293
1463226.60987801 2654418.53492931313226.60987801 2644418.5349293
1323226.60987801 2644418.53492931333226.60987801 2644418.5349293
1343226.60987801 2644418.53492931353226.60987801 2644418.5349293
1363226.60987801 2644418.53492931373226.60987801 2644418.5349293
1383226.60987801 2644418.53492931393226.60987801 2644418.5349293
1403226.60987801 2644418.53492931413226.60987801 2644418.5349293
1423226.60987801 2644418.53492931433226.60987801 2644418.5349293
1443226.60987801 2644418.53492931453226.60987801 2644418.5349293
1463226.60987801 2644418.53492931313226.60987801 2634418.5349293
1323226.60987801 2634418.53492931333226.60987801 2634418.5349293
1343226.60987801 2634418.53492931353226.60987801 2634418.5349293
1363226.60987801 2634418.53492931373226.60987801 2634418.5349293
1383226.60987801 2634418.53492931393226.60987801 2634418.5349293
1403226.60987801 2634418.53492931413226.60987801 2634418.5349293
1423226.60987801 2634418.53492931433226.60987801 2634418.5349293
1443226.60987801 2634418.53492931453226.60987801 2634418.5349293
1463226.60987801 2634418.53492931473226.60987801 2634418.5349293
1323226.60987801 2624418.53492931333226.60987801 2624418.5349293
1343226.60987801 2624418.53492931353226.60987801 2624418.5349293
1363226.60987801 2624418.53492931373226.60987801 2624418.5349293
1383226.60987801 2624418.53492931393226.60987801 2624418.5349293
1403226.60987801 2624418.53492931413226.60987801 2624418.5349293
1423226.60987801 2624418.53492931433226.60987801 2624418.5349293
1443226.60987801 2624418.53492931453226.60987801 2624418.5349293
1463226.60987801 2624418.53492931473226.60987801 2624418.5349293
1323226.60987801 2614418.53492931333226.60987801 2614418.5349293
1343226.60987801 2614418.53492931353226.60987801 2614418.5349293
1363226.60987801 2614418.53492931373226.60987801 2614418.5349293
1383226.60987801 2614418.53492931393226.60987801 2614418.5349293
1403226.60987801 2614418.53492931413226.60987801 2614418.5349293
1423226.60987801 2614418.53492931433226.60987801 2614418.5349293
1443226.60987801 2614418.53492931453226.60987801 2614418.5349293
1463226.60987801 2614418.53492931473226.60987801 2614418.5349293
1483226.60987801 2614418.53492931333226.60987801 2604418.5349293
1343226.60987801 2604418.53492931353226.60987801 2604418.5349293
1363226.60987801 2604418.53492931373226.60987801 2604418.5349293
1383226.60987801 2604418.53492931393226.60987801 2604418.5349293
1403226.60987801 2604418.53492931413226.60987801 2604418.5349293
1423226.60987801 2604418.53492931433226.60987801 2604418.5349293
1443226.60987801 2604418.53492931453226.60987801 2604418.5349293
1463226.60987801 2604418.53492931473226.60987801 2604418.5349293
1483226.60987801 2604418.53492931333226.60987801 2594418.5349293
1343226.60987801 2594418.53492931353226.60987801 2594418.5349293
1363226.60987801 2594418.53492931373226.60987801 2594418.5349293
1383226.60987801 2594418.53492931393226.60987801 2594418.5349293
1403226.60987801 2594418.53492931413226.60987801 2594418.5349293
1423226.60987801 2594418.53492931433226.60987801 2594418.5349293
1443226.60987801 2594418.53492931453226.60987801 2594418.5349293
1463226.60987801 2594418.53492931473226.60987801 2594418.5349293
1483226.60987801 2594418.53492931493226.60987801 2594418.5349293
1343226.60987801 2584418.53492931353226.60987801 2584418.5349293
1363226.60987801 2584418.53492931373226.60987801 2584418.5349293
1383226.60987801 2584418.53492931393226.60987801 2584418.5349293
1403226.60987801 2584418.53492931413226.60987801 2584418.5349293
1423226.60987801 2584418.53492931433226.60987801 2584418.5349293
1443226.60987801 2584418.53492931453226.60987801 2584418.5349293
1463226.60987801 2584418.53492931473226.60987801 2584418.5349293
1483226.60987801 2584418.53492931493226.60987801 2584418.5349293
1343226.60987801 2574418.53492931353226.60987801 2574418.5349293
1363226.60987801 2574418.53492931373226.60987801 2574418.5349293
1383226.60987801 2574418.53492931393226.60987801 2574418.5349293
1403226.60987801 2574418.53492931413226.60987801 2574418.5349293
1423226.60987801 2574418.53492931433226.60987801 2574418.5349293
1443226.60987801 2574418.53492931453226.60987801 2574418.5349293
1463226.60987801 2574418.53492931473226.60987801 2574418.5349293
1483226.60987801 2574418.53492931493226.60987801 2574418.5349293
1503226.60987801 2574418.53492931343226.60987801 2564418.5349293
1353226.60987801 2564418.53492931363226.60987801 2564418.5349293
1373226.60987801 2564418.53492931383226.60987801 2564418.5349293
1393226.60987801 2564418.53492931403226.60987801 2564418.5349293
1413226.60987801 2564418.53492931423226.60987801 2564418.5349293
1433226.60987801 2564418.53492931443226.60987801 2564418.5349293
1453226.60987801 2564418.53492931463226.60987801 2564418.5349293
1473226.60987801 2564418.53492931483226.60987801 2564418.5349293
1493226.60987801 2564418.53492931503226.60987801 2564418.5349293
1353226.60987801 2554418.53492931363226.60987801 2554418.5349293
1373226.60987801 2554418.53492931383226.60987801 2554418.5349293
1393226.60987801 2554418.53492931403226.60987801 2554418.5349293
1413226.60987801 2554418.53492931423226.60987801 2554418.5349293
1433226.60987801 2554418.53492931443226.60987801 2554418.5349293
1453226.60987801 2554418.53492931463226.60987801 2554418.5349293
1473226.60987801 2554418.53492931483226.60987801 2554418.5349293
1493226.60987801 2554418.53492931503226.60987801 2554418.5349293
1353226.60987801 2544418.53492931363226.60987801 2544418.5349293
1373226.60987801 2544418.53492931383226.60987801 2544418.5349293
1393226.60987801 2544418.53492931403226.60987801 2544418.5349293
1413226.60987801 2544418.53492931423226.60987801 2544418.5349293
1433226.60987801 2544418.53492931443226.60987801 2544418.5349293
1453226.60987801 2544418.53492931463226.60987801 2544418.5349293
1473226.60987801 2544418.53492931483226.60987801 2544418.5349293
1493226.60987801 2544418.53492931503226.60987801 2544418.5349293
1513226.60987801 2544418.53492931363226.60987801 2534418.5349293
1373226.60987801 2534418.53492931383226.60987801 2534418.5349293
1393226.60987801 2534418.53492931403226.60987801 2534418.5349293
1413226.60987801 2534418.53492931423226.60987801 2534418.5349293
1433226.60987801 2534418.53492931443226.60987801 2534418.5349293
1453226.60987801 2534418.53492931463226.60987801 2534418.5349293
1473226.60987801 2534418.53492931483226.60987801 2534418.5349293
1493226.60987801 2534418.53492931503226.60987801 2534418.5349293
1513226.60987801 2534418.53492931363226.60987801 2524418.5349293
1373226.60987801 2524418.53492931383226.60987801 2524418.5349293
1393226.60987801 2524418.53492931403226.60987801 2524418.5349293
1413226.60987801 2524418.53492931423226.60987801 2524418.5349293
1433226.60987801 2524418.53492931443226.60987801 2524418.5349293
1453226.60987801 2524418.53492931463226.60987801 2524418.5349293
1473226.60987801 2524418.53492931483226.60987801 2524418.5349293
1493226.60987801 2524418.53492931503226.60987801 2524418.5349293
1513226.60987801 2524418.53492931523226.60987801 2524418.5349293
1373226.60987801 2514418.53492931383226.60987801 2514418.5349293
1393226.60987801 2514418.53492931403226.60987801 2514418.5349293
1413226.60987801 2514418.53492931423226.60987801 2514418.5349293
1433226.60987801 2514418.53492931443226.60987801 2514418.5349293
1453226.60987801 2514418.53492931463226.60987801 2514418.5349293
1473226.60987801 2514418.53492931483226.60987801 2514418.5349293
1493226.60987801 2514418.53492931503226.60987801 2514418.5349293
1513226.60987801 2514418.53492931523226.60987801 2514418.5349293
1373226.60987801 2504418.53492931383226.60987801 2504418.5349293
1393226.60987801 2504418.53492931403226.60987801 2504418.5349293
1413226.60987801 2504418.53492931423226.60987801 2504418.5349293
1433226.60987801 2504418.53492931443226.60987801 2504418.5349293
1453226.60987801 2504418.53492931463226.60987801 2504418.5349293
1473226.60987801 2504418.53492931483226.60987801 2504418.5349293
1493226.60987801 2504418.53492931503226.60987801 2504418.5349293
1513226.60987801 2504418.53492931523226.60987801 2504418.5349293
1533226.60987801 2504418.53492931373226.60987801 2494418.5349293
1383226.60987801 2494418.53492931393226.60987801 2494418.5349293
1403226.60987801 2494418.53492931413226.60987801 2494418.5349293
1423226.60987801 2494418.53492931433226.60987801 2494418.5349293
1443226.60987801 2494418.53492931453226.60987801 2494418.5349293
1463226.60987801 2494418.53492931473226.60987801 2494418.5349293
1483226.60987801 2494418.53492931493226.60987801 2494418.5349293
1503226.60987801 2494418.53492931513226.60987801 2494418.5349293
1523226.60987801 2494418.53492931533226.60987801 2494418.5349293
1383226.60987801 2484418.53492931393226.60987801 2484418.5349293
1403226.60987801 2484418.53492931413226.60987801 2484418.5349293
1423226.60987801 2484418.53492931433226.60987801 2484418.5349293
1443226.60987801 2484418.53492931453226.60987801 2484418.5349293
1463226.60987801 2484418.53492931473226.60987801 2484418.5349293
1483226.60987801 2484418.53492931493226.60987801 2484418.5349293
1503226.60987801 2484418.53492931513226.60987801 2484418.5349293
1523226.60987801 2484418.53492931533226.60987801 2484418.5349293
1543226.60987801 2484418.53492931383226.60987801 2474418.5349293
1393226.60987801 2474418.53492931403226.60987801 2474418.5349293
1413226.60987801 2474418.53492931423226.60987801 2474418.5349293
1433226.60987801 2474418.53492931443226.60987801 2474418.5349293
1453226.60987801 2474418.53492931463226.60987801 2474418.5349293
1473226.60987801 2474418.53492931483226.60987801 2474418.5349293
1493226.60987801 2474418.53492931503226.60987801 2474418.5349293
1513226.60987801 2474418.53492931523226.60987801 2474418.5349293
1533226.60987801 2474418.53492931543226.60987801 2474418.5349293
1393226.60987801 2464418.53492931403226.60987801 2464418.5349293
1413226.60987801 2464418.53492931423226.60987801 2464418.5349293
1433226.60987801 2464418.53492931443226.60987801 2464418.5349293
1453226.60987801 2464418.53492931463226.60987801 2464418.5349293
1473226.60987801 2464418.53492931483226.60987801 2464418.5349293
1493226.60987801 2464418.53492931503226.60987801 2464418.5349293
1513226.60987801 2464418.53492931523226.60987801 2464418.5349293
1533226.60987801 2464418.53492931543226.60987801 2464418.5349293
1553226.60987801 2464418.53492931393226.60987801 2454418.5349293
1403226.60987801 2454418.53492931413226.60987801 2454418.5349293
1423226.60987801 2454418.53492931433226.60987801 2454418.5349293
1443226.60987801 2454418.53492931453226.60987801 2454418.5349293
1463226.60987801 2454418.53492931473226.60987801 2454418.5349293
1483226.60987801 2454418.53492931493226.60987801 2454418.5349293
1503226.60987801 2454418.53492931513226.60987801 2454418.5349293
1523226.60987801 2454418.53492931533226.60987801 2454418.5349293
1543226.60987801 2454418.53492931553226.60987801 2454418.5349293
1403226.60987801 2444418.53492931413226.60987801 2444418.5349293
1423226.60987801 2444418.53492931433226.60987801 2444418.5349293
1443226.60987801 2444418.53492931453226.60987801 2444418.5349293
1463226.60987801 2444418.53492931473226.60987801 2444418.5349293
1483226.60987801 2444418.53492931493226.60987801 2444418.5349293
1503226.60987801 2444418.53492931513226.60987801 2444418.5349293
1523226.60987801 2444418.53492931533226.60987801 2444418.5349293
1543226.60987801 2444418.53492931553226.60987801 2444418.5349293
1563226.60987801 2444418.53492931403226.60987801 2434418.5349293
1413226.60987801 2434418.53492931423226.60987801 2434418.5349293
1433226.60987801 2434418.53492931443226.60987801 2434418.5349293
1453226.60987801 2434418.53492931463226.60987801 2434418.5349293
1473226.60987801 2434418.53492931483226.60987801 2434418.5349293
1493226.60987801 2434418.53492931503226.60987801 2434418.5349293
1513226.60987801 2434418.53492931523226.60987801 2434418.5349293
1533226.60987801 2434418.53492931543226.60987801 2434418.5349293
1553226.60987801 2434418.53492931563226.60987801 2434418.5349293
1403226.60987801 2424418.53492931413226.60987801 2424418.5349293
1423226.60987801 2424418.53492931433226.60987801 2424418.5349293
1443226.60987801 2424418.53492931453226.60987801 2424418.5349293
1463226.60987801 2424418.53492931473226.60987801 2424418.5349293
1483226.60987801 2424418.53492931493226.60987801 2424418.5349293
1503226.60987801 2424418.53492931513226.60987801 2424418.5349293
1523226.60987801 2424418.53492931533226.60987801 2424418.5349293
1543226.60987801 2424418.53492931553226.60987801 2424418.5349293
1563226.60987801 2424418.53492931573226.60987801 2424418.5349293
1403226.60987801 2414418.53492931413226.60987801 2414418.5349293
1423226.60987801 2414418.53492931433226.60987801 2414418.5349293
1443226.60987801 2414418.53492931453226.60987801 2414418.5349293
1463226.60987801 2414418.53492931473226.60987801 2414418.5349293
1483226.60987801 2414418.53492931493226.60987801 2414418.5349293
1503226.60987801 2414418.53492931513226.60987801 2414418.5349293
1523226.60987801 2414418.53492931533226.60987801 2414418.5349293
1543226.60987801 2414418.53492931553226.60987801 2414418.5349293
1563226.60987801 2414418.53492931403226.60987801 2404418.5349293
1413226.60987801 2404418.53492931423226.60987801 2404418.5349293
1433226.60987801 2404418.53492931443226.60987801 2404418.5349293
1453226.60987801 2404418.53492931463226.60987801 2404418.5349293
1473226.60987801 2404418.53492931483226.60987801 2404418.5349293
1493226.60987801 2404418.53492931503226.60987801 2404418.5349293
1513226.60987801 2404418.53492931523226.60987801 2404418.5349293
1533226.60987801 2404418.53492931543226.60987801 2404418.5349293
1553226.60987801 2404418.53492931563226.60987801 2404418.5349293
1393226.60987801 2394418.53492931403226.60987801 2394418.5349293
1413226.60987801 2394418.53492931423226.60987801 2394418.5349293
1433226.60987801 2394418.53492931443226.60987801 2394418.5349293
1453226.60987801 2394418.53492931463226.60987801 2394418.5349293
1473226.60987801 2394418.53492931483226.60987801 2394418.5349293
1493226.60987801 2394418.53492931503226.60987801 2394418.5349293
1513226.60987801 2394418.53492931523226.60987801 2394418.5349293
1533226.60987801 2394418.53492931543226.60987801 2394418.5349293
1553226.60987801 2394418.53492931393226.60987801 2384418.5349293
1403226.60987801 2384418.53492931413226.60987801 2384418.5349293
1423226.60987801 2384418.53492931433226.60987801 2384418.5349293
1443226.60987801 2384418.53492931453226.60987801 2384418.5349293
1463226.60987801 2384418.53492931473226.60987801 2384418.5349293
1483226.60987801 2384418.53492931493226.60987801 2384418.5349293
1503226.60987801 2384418.53492931513226.60987801 2384418.5349293
1523226.60987801 2384418.53492931533226.60987801 2384418.5349293
1543226.60987801 2384418.53492931553226.60987801 2384418.5349293
1383226.60987801 2374418.53492931393226.60987801 2374418.5349293
1403226.60987801 2374418.53492931413226.60987801 2374418.5349293
1423226.60987801 2374418.53492931433226.60987801 2374418.5349293
1443226.60987801 2374418.53492931453226.60987801 2374418.5349293
1463226.60987801 2374418.53492931473226.60987801 2374418.5349293
1483226.60987801 2374418.53492931493226.60987801 2374418.5349293
1503226.60987801 2374418.53492931513226.60987801 2374418.5349293
1523226.60987801 2374418.53492931533226.60987801 2374418.5349293
1543226.60987801 2374418.53492931553226.60987801 2374418.5349293
1383226.60987801 2364418.53492931393226.60987801 2364418.5349293
1403226.60987801 2364418.53492931413226.60987801 2364418.5349293
1423226.60987801 2364418.53492931433226.60987801 2364418.5349293
1443226.60987801 2364418.53492931453226.60987801 2364418.5349293
1463226.60987801 2364418.53492931473226.60987801 2364418.5349293
1483226.60987801 2364418.53492931493226.60987801 2364418.5349293
1503226.60987801 2364418.53492931513226.60987801 2364418.5349293
1523226.60987801 2364418.53492931533226.60987801 2364418.5349293
1543226.60987801 2364418.53492931373226.60987801 2354418.5349293
1383226.60987801 2354418.53492931393226.60987801 2354418.5349293
1403226.60987801 2354418.53492931413226.60987801 2354418.5349293
1423226.60987801 2354418.53492931433226.60987801 2354418.5349293
1443226.60987801 2354418.53492931453226.60987801 2354418.5349293
1463226.60987801 2354418.53492931473226.60987801 2354418.5349293
1483226.60987801 2354418.53492931493226.60987801 2354418.5349293
1503226.60987801 2354418.53492931513226.60987801 2354418.5349293
1523226.60987801 2354418.53492931533226.60987801 2354418.5349293
1543226.60987801 2354418.53492931373226.60987801 2344418.5349293
1383226.60987801 2344418.53492931393226.60987801 2344418.5349293
1403226.60987801 2344418.53492931413226.60987801 2344418.5349293
1423226.60987801 2344418.53492931433226.60987801 2344418.5349293
1443226.60987801 2344418.53492931453226.60987801 2344418.5349293
1463226.60987801 2344418.53492931473226.60987801 2344418.5349293
1483226.60987801 2344418.53492931493226.60987801 2344418.5349293
1503226.60987801 2344418.53492931513226.60987801 2344418.5349293
1523226.60987801 2344418.53492931533226.60987801 2344418.5349293
1543226.60987801 2344418.53492931363226.60987801 2334418.5349293
1373226.60987801 2334418.53492931383226.60987801 2334418.5349293
1393226.60987801 2334418.53492931403226.60987801 2334418.5349293
1413226.60987801 2334418.53492931423226.60987801 2334418.5349293
1433226.60987801 2334418.53492931443226.60987801 2334418.5349293
1453226.60987801 2334418.53492931463226.60987801 2334418.5349293